[Config FloorPlan1]
network =Floorplan
description = distribute 10 host randomicaly
sim-time-limit = 20s
*.numHosts = 5
*.dim = 600m #floorplan dimension
**.mobility.typename = "StationaryMobility"
**.visualizer.*.mobilityVisualizer.displayMobility = true 
**.visualizer.*.mobilityVisualizer.displayPositions = true
**.host[*].mobility.initFromDisplayString = false
*.*.mobility.constraintAreaMinX = 0m
*.*.mobility.constraintAreaMinY = 0m
*.*.mobility.constraintAreaMinZ = 0m
*.*.mobility.constraintAreaMaxX = 600m
*.*.mobility.constraintAreaMaxY = 600m
*.*.mobility.constraintAreaMaxZ = 0m
repeat = 2
seed-set = ${repetition} # 2 different randon configurations

**.host[*].mobility.initialX = uniform(0m, 600m)
**.host[*].mobility.initialY = uniform(0m, 600m)
